    7
scf done:  -700.219657
 S    -0.082802    -0.053437    -0.068977
 O     0.139415     0.155808     1.518284
 O    -0.838494     1.092633    -0.512782
 O     1.483787     0.089867    -0.534024
 O    -0.491297    -1.422865    -0.352666
 H     0.565905    -0.636849     1.898349
 H     1.622628    -0.495947    -1.303464
